/*--------------------------------*- C++ -*----------------------------------*\
| =========                 |                                                 |
| \\      /  F ield         | OpenFOAM: The Open Source CFD Toolbox           |
|  \\    /   O peration     | Version:  5.x                                   |
|   \\  /    A nd           | Web:      www.OpenFOAM.org                      |
|    \\/     M anipulation  |                                                 |
\*---------------------------------------------------------------------------*/
FoamFile
{
    version     2.0;
    format      ascii;
    class       volVectorField;
    location    "0";
    object      U;
}
// * * * * * * * * * * * * * * * * * * * * * * * * * * * * * * * * * * * * * //

dimensions      [0 1 -1 0 0 0 0];

internalField   uniform (0 0 0); 

boundaryField
{ 
    inlet
    {
        type                fixedValue; //mapped;
        value               uniform (9.39 0 0); // 可在此设置入口边界的流速初始值（x分量,y分量,z分量）
    }
    outlet
    {
        type            zeroGradient;
    }
    walls
    {
        type            noSlip;
    }
    sides
    {
        type            empty;
    } 
}

/*
OpenFOAM 边界条件类型:
• Dirichlet (fixedValue)
• Neumann (fixedGradient/zeroGradient)
• Special types: cyclic, symmetry, empty(仅针对2D模型)
*/

// ************************************************************************* //
